Circuit: * C:\Users\UTSAV PATHAK\Desktop\BidirectionalShiftRegister_UtsavPathak.asc

Direct Newton iteration failed to find .op point.  (Use ".option noopiter" to skip.)
Starting Gmin stepping
Gmin = 10
Gmin = 1.07374
Gmin = 0.115292
Gmin = 0.0123794
Gmin = 0.00132923
Gmin = 0.000142725
Gmin = 1.5325e-005
Gmin = 1.6455e-006
Gmin = 1.76685e-007
Gmin = 1.89714e-008
Gmin = 2.03704e-009
Gmin = 2.18725e-010
Gmin = 2.34854e-011
vernier = 0.5
vernier = 0.25
Gmin = 9.93555e-012
vernier = 0.125
vernier = 0.0625
vernier = 0.03125
vernier = 0.015625
vernier = 0.0078125
vernier = 0.00390625
vernier = 0.00195313
Gmin = 1.02366e-011
vernier = 0.000976563
vernier = 0.000488281
Gmin = 0
Gmin stepping succeeded in finding the operating point.

Heightened Def Con from 1e-011 to 3.01e-009

Date: Mon Dec 21 16:51:51 2020
Total elapsed time: 3.299 seconds.

tnom = 27
temp = 27
method = modified trap
totiter = 33298
traniter = 31053
tranpoints = 7739
accept = 5665
rejected = 2075
matrix size = 348
fillins = 300
solver = Normal
Thread vector: 37.2/24.4[4] 22.4/6.6[4] 2.1/7.4[1] 3.2/7.5[1]  2592/500
Matrix Compiler1: 39.56 KB object code size  20.5/9.9/[5.9]
Matrix Compiler2: 35.57 KB object code size  10.2/11.1/[8.4]

