Circuit: * C:\Users\UTSAV PATHAK\Desktop\EXP-6-XP-1.asc

Direct Newton iteration for .op point succeeded.

Date: Thu Dec 17 10:16:33 2020
Total elapsed time: 0.123 seconds.

tnom = 27
temp = 27
method = modified trap
totiter = 549
traniter = 522
tranpoints = 262
accept = 262
rejected = 0
matrix size = 88
fillins = 46
solver = Normal
Matrix Compiler1: 8.03 KB object code size  2.2/1.4/[0.7]
Matrix Compiler2: 8.25 KB object code size  1.1/2.0/[0.8]

