Circuit: * C:\Users\UTSAV PATHAK\Desktop\JK.asc

Direct Newton iteration failed to find .op point.  (Use ".option noopiter" to skip.)
Starting Gmin stepping
Gmin = 10
Gmin = 1.07374
Gmin = 0.115292
Gmin = 0.0123794
Gmin = 0.00132923
Gmin = 0.000142725
Gmin = 1.5325e-005
Gmin = 1.6455e-006
Gmin = 1.76685e-007
Gmin = 1.89714e-008
Gmin = 2.03704e-009
Gmin = 2.18725e-010
Gmin = 2.34854e-011
vernier = 0.5
vernier = 0.25
Gmin = 1.23765e-011
vernier = 0.125
vernier = 0.166667
Gmin = 9.20429e-012
vernier = 0.222222
vernier = 0.111111
Gmin = 6.46745e-012
vernier = 0.0555555
vernier = 0.0277778
vernier = 0.0138889
vernier = 0.00694444
vernier = 0.00347222
vernier = 0.00173611
Gmin = 6.37885e-012
vernier = 0.000868055
vernier = 0.000434028
Gmin = 0
Gmin stepping failed

Starting source stepping with srcstepmethod=0
Source Step = 3.0303%
vernier = 0.25
Source Step = 2.79356%
Source Step = 2.82611%
Source Step = 2.85571%
Source Step = 2.8853%
Source Step = 2.91489%
Source Step = 2.94448%
vernier = 0.00146484
Source Step = 2.97704%
Source Step = 3.02143%
Source Step = 3.06581%
Source Step = 3.1102%
Source Step = 3.15459%
vernier = 0.00219727
Source Step = 3.2012%
Source Step = 3.26779%
Source Step = 3.33437%
Source Step = 3.40095%
Source Step = 3.46754%
Source Step = 3.53412%
Source Step = 3.6007%
Source Step = 3.66729%
Source Step = 3.73387%
vernier = 0.0032959
Source Step = 3.82709%
Source Step = 3.92696%
Source Step = 4.02684%
Source Step = 4.12672%
Source Step = 4.22659%
Source Step = 4.32647%
Source Step = 4.42634%
Source Step = 4.52622%
vernier = 0.00494385
Source Step = 4.63608%
Source Step = 4.68103%
Source Step = 4.71848%
Source Step = 4.75593%
Source Step = 4.79339%
Source Step = 4.83084%
vernier = 0.00185394
Source Step = 4.8814%
Source Step = 4.93758%
Source Step = 4.99376%
Source Step = 5.04994%
Source Step = 5.10612%
vernier = 0.00278091
Source Step = 5.17916%
Source Step = 5.26343%
Source Step = 5.3477%
Source Step = 5.43197%
Source Step = 5.51624%
vernier = 0.00417137
Source Step = 5.62157%
Source Step = 5.74798%
Source Step = 5.87439%
Source Step = 6.00079%
Source Step = 6.1272%
vernier = 0.00625706
Source Step = 6.27888%
Source Step = 6.46849%
Source Step = 6.6581%
Source Step = 6.84771%
Source Step = 7.03731%
vernier = 0.00938559
Source Step = 7.25536%
Source Step = 7.53977%
Source Step = 7.82419%
Source Step = 8.1086%
Source Step = 8.39301%
vernier = 0.0140784
Source Step = 8.70586%
Source Step = 9.13248%
Source Step = 9.5591%
Source Step = 9.98571%
Source Step = 10.4123%
vernier = 0.0211176
Source Step = 10.8603%
Source Step = 11.5002%
Source Step = 12.1401%
Source Step = 12.7801%
Source Step = 13.42%
Source Step = 14.0599%
vernier = 0.0316764
Source Step = 15.0198%
Source Step = 15.2838%
Source Step = 15.3438%
Source Step = 15.4038%
Source Step = 15.4638%
Source Step = 15.5237%
Source Step = 15.5837%
vernier = 0.00296966
Source Step = 15.6737%
Source Step = 15.7637%
Source Step = 15.8537%
Source Step = 15.9437%
Source Step = 16.0337%
vernier = 0.00445449
Source Step = 16.0798%
Source Step = 16.1136%
Source Step = 16.1473%
Source Step = 16.181%
Source Step = 16.2148%
vernier = 0.00167043
Source Step = 16.257%
Source Step = 16.3076%
Source Step = 16.3582%
Source Step = 16.4088%
Source Step = 16.4594%
vernier = 0.00250565
Source Step = 16.5202%
Source Step = 16.5961%
Source Step = 16.672%
Source Step = 16.748%
Source Step = 16.8239%
vernier = 0.00375847
Source Step = 16.9112%
Source Step = 17.0251%
Source Step = 17.139%
Source Step = 17.2529%
Source Step = 17.3668%
vernier = 0.00563771
Source Step = 17.4921%
Source Step = 17.6629%
Source Step = 17.8338%
Source Step = 18.0046%
Source Step = 18.1754%
vernier = 0.00845657
Source Step = 18.3548%
Source Step = 18.6111%
Source Step = 18.8673%
Source Step = 19.1236%
Source Step = 19.3799%
Source Step = 19.6361%
vernier = 0.0126848
Source Step = 20.0205%
Source Step = 20.4049%
Source Step = 20.7893%
Source Step = 21.1737%
Source Step = 21.5581%
vernier = 0.0190273
Source Step = 22.1154%
Source Step = 22.692%
Source Step = 23.2686%
Source Step = 23.8452%
Source Step = 24.4218%
vernier = 0.0285409
Source Step = 25.229%
Source Step = 26.0939%
Source Step = 26.9587%
Source Step = 27.8236%
Source Step = 28.6885%
vernier = 0.0428114
Source Step = 29.8561%
Source Step = 31.1534%
Source Step = 32.4507%
Source Step = 33.748%
Source Step = 35.0453%
vernier = 0.064217
Source Step = 36.7318%
Source Step = 38.6778%
Source Step = 40.6238%
Source Step = 42.5697%
Source Step = 44.5157%
vernier = 0.0963256
Source Step = 46.9482%
Source Step = 49.8671%
Source Step = 52.7861%
Source Step = 55.705%
Source Step = 58.624%
vernier = 0.144488
Source Step = 62.1268%
Source Step = 66.5052%
Source Step = 70.8836%
Source Step = 75.2621%
Source Step = 79.6405%
vernier = 0.216733
Source Step = 84.6757%
Source Step = 91.2433%
Source Step = 97.811%
Source Step = 100%
Source Step = 99.3284%
vernier = 0.0135458
Source Step = 99.2617%
Source Step = 99.2873%
Source Step = 99.313%
Source Step = 99.3386%
Source Step = 99.3643%
Source Step = 99.39%
Source Step = 99.4156%
Source Step = 99.4413%
Source Step = 99.4669%
Source Step = 99.4926%
Source Step = 99.5182%
Source Step = 99.5439%
Source Step = 99.5695%
Source Step = 99.5952%
Source Step = 99.6208%
Source Step = 99.6465%
Source Step = 99.6722%
Source Step = 99.6978%
Source Step = 99.7235%
Source Step = 99.7491%
Source Step = 99.7748%
Source Step = 99.8004%
Source Step = 99.8261%
Source Step = 99.8517%
Source Step = 99.8774%
Source Step = 99.9031%
Source Step = 99.9287%
Source Step = 99.9544%
Source Step = 99.98%
Source Step = 100%
Source Step = 100%
Source Step = 100%
Source Step = 100%
Source Step = 100%
Source Step = 100%
Source Step = 100%
Source Step = 100%
Source Step = 100%
Source Step = 100%
Source Step = 100%
Source Step = 100%
Source Step = 100%
Source Step = 100%
Source Step = 100%
Source Step = 100%
Source Step = 100%
Source Step = 100%
Source Step = 100%
Source Step = 100%
Source Step = 100%
Source Step = 100%
Source Step = 100%
Source Step = 100%
Source Step = 100%
Source Step = 100%
Source Step = 100%
Source Step = 100%
Source Step = 100%
Source Step = 100%
Source Step = 100%
Source Step = 100%
Source Step = 100%
Source Step = 100%
Source Step = 100%
Source Step = 100%
Source Step = 100%
Source Step = 100%
Source Step = 100%
Source Step = 100%
Source Step = 100%
Source Step = 100%
Source Step = 100%
Source Step = 100%
Source Step = 100%
Source Step = 100%
Source Step = 100%
Source Step = 100%
Source Step = 100%
Source Step = 100%
Source Step = 100%
Source Step = 100%
Source Step = 100%
Source Step = 100%
Source Step = 100%
Source Step = 100%
Source Step = 100%
Source Step = 100%
Source Step = 100%
Source Step = 100%
Source Step = 100%
Source Step = 100%
Source Step = 100%
Source Step = 100%
Source Step = 100%
Source Step = 100%
Source Step = 100%
Source Step = 100%
Source Step = 100%
Source Step = 100%
Source Step = 100%
Source Step = 100%
Source Step = 100%
Source Step = 100%
Source Step = 100%
Source Step = 100%
Source Step = 100%
Source Step = 100%
Source Step = 100%
Source Step = 100%
Source Step = 100%
Source Step = 100%
Source Step = 100%
Source Step = 100%
Source Step = 100%
Source Step = 100%
Source Step = 100%
Source Step = 100%
Source Step = 100%
Source Step = 100%
Source Step = 100%
Source Step = 100%
Source Step = 100%
Source Step = 100%
Source Step = 100%
Source Step = 100%
Source Step = 100%
Source Step = 100%
Source Step = 100%
Source Step = 100%
Source Step = 100%
Source Step = 100%
Source Step = 100%
Source Step = 100%
Source Step = 100%
Source Step = 100%
Source Step = 100%
Source Step = 100%
Source Step = 100%
Source Step = 100%
Source Step = 100%
Source Step = 100%
Source Step = 100%
Source Step = 100%
Source Step = 100%
Source Step = 100%
Source Step = 100%
Source Step = 100%
Source Step = 100%
Source Step = 100%
Source Step = 100%
Source Step = 100%
Source Step = 100%
Source Step = 100%
Source Step = 100%
Source Step = 100%
Source Step = 100%
Source Step = 100%
Source Step = 100%
Source Step = 100%
Source Step = 100%
Source Step = 100%
Source Step = 100%
Source Step = 100%
Source Step = 100%
Source Step = 100%
Source Step = 100%
Source Step = 100%
Source Step = 100%
Source Step = 100%
Source Step = 100%
Source Step = 100%
Source Step = 100%
Source Step = 100%
Source Step = 100%
Source Step = 100%
Source Step = 100%
Source Step = 100%
Source Step = 100%
Source Step = 100%
Source Step = 100%
Source Step = 100%
Source Step = 100%
Source Step = 100%
Source Step = 100%
Source Step = 100%
Source Step = 100%
Source Step = 100%
Source Step = 100%
Source Step = 100%
Source Step = 100%
Source Step = 100%
Source Step = 100%
Source Step = 100%
Source Step = 100%
Source Step = 100%
Source Step = 100%
Source Step = 100%
Source Step = 100%
Source Step = 100%
Source Step = 100%
Source Step = 100%
Source Step = 100%
Source Step = 100%
Source Step = 100%
Source Step = 100%
Source Step = 100%
Source Step = 100%
Source Step = 100%
Source Step = 100%
Source Step = 100%
Source Step = 100%
Source Step = 100%
Source Step = 100%
Source Step = 100%
Source Step = 100%
Source Step = 100%
Source Step = 100%
Source Step = 100%
Source Step = 100%
Source Step = 100%
Source Step = 100%
Source Step = 100%
Source Step = 100%
Source Step = 100%
Source Step = 100%
Source Step = 100%
Source stepping aborted.
Starting source stepping with srcstepmethod=1
Source Step = 3.0303%
vernier = 0.25
Source Step = 0.0177557%
Source Step = 0.0473485%
Source Step = 0.0769413%
Source Step = 0.106534%
Source Step = 0.136127%
vernier = 0.00146484
Source Step = 0.168679%
Source Step = 0.213068%
Source Step = 0.257457%
Source Step = 0.301847%
Source Step = 0.346236%
vernier = 0.00219727
Source Step = 0.392844%
Source Step = 0.459428%
Source Step = 0.526012%
Source Step = 0.592596%
Source Step = 0.65918%
Source Step = 0.725763%
vernier = 0.0032959
Source Step = 0.825639%
Source Step = 0.925515%
Source Step = 1.02539%
Source Step = 1.12527%
Source Step = 1.22514%
vernier = 0.00494385
Source Step = 1.36996%
Source Step = 1.51978%
Source Step = 1.66959%
Source Step = 1.8194%
Source Step = 1.96922%
vernier = 0.00741577
Source Step = 2.0385%
Source Step = 2.09468%
Source Step = 2.15087%
Source Step = 2.20705%
Source Step = 2.26323%
vernier = 0.00278091
Source Step = 2.32783%
Source Step = 2.4121%
Source Step = 2.49637%
Source Step = 2.58064%
Source Step = 2.66491%
vernier = 0.00417137
Source Step = 2.75761%
Source Step = 2.88402%
Source Step = 2.92194%
Source Step = 2.95354%
Source Step = 2.98514%
Source Step = 3.01674%
Source Step = 3.04834%
vernier = 0.00156426
Source Step = 3.08784%
Source Step = 3.13525%
Source Step = 3.18265%
Source Step = 3.23005%
Source Step = 3.27745%
vernier = 0.0023464
Source Step = 3.33433%
Source Step = 3.40544%
Source Step = 3.47654%
Source Step = 3.54764%
Source Step = 3.61875%
vernier = 0.00351959
Source Step = 3.70051%
Source Step = 3.76451%
Source Step = 3.79117%
Source Step = 3.81783%
Source Step = 3.8445%
Source Step = 3.87116%
vernier = 0.00131985
Source Step = 3.90182%
Source Step = 3.94182%
Source Step = 3.98181%
Source Step = 4.02181%
Source Step = 4.06181%
vernier = 0.00197977
Source Step = 4.1058%
Source Step = 4.16579%
Source Step = 4.22579%
Source Step = 4.28578%
Source Step = 4.34577%
vernier = 0.00296966
Source Step = 4.40877%
Source Step = 4.49876%
Source Step = 4.58874%
Source Step = 4.67873%
Source Step = 4.76872%
Source Step = 4.85871%
vernier = 0.00445449
Source Step = 4.9937%
Source Step = 5.12868%
Source Step = 5.26367%
Source Step = 5.39865%
Source Step = 5.53364%
vernier = 0.00668173
Source Step = 5.72936%
Source Step = 5.93184%
Source Step = 6.13432%
Source Step = 6.33679%
Source Step = 6.53927%
vernier = 0.0100226
Source Step = 6.82274%
Source Step = 7.12645%
Source Step = 7.43017%
Source Step = 7.73388%
Source Step = 8.0376%
vernier = 0.0150339
Source Step = 8.44761%
Source Step = 8.90319%
Source Step = 9.35876%
Source Step = 9.81433%
Source Step = 10.2699%
vernier = 0.0225508
Source Step = 10.8621%
Source Step = 11.5455%
Source Step = 12.2289%
Source Step = 12.9122%
Source Step = 13.5956%
vernier = 0.0338263
Source Step = 14.4498%
vernier = 0.00845657
Source Step = 14.4626%
Source Step = 14.5267%
Source Step = 14.5907%
Source Step = 14.6548%
Source Step = 14.7189%
vernier = 0.00317121
Source Step = 14.7893%
Source Step = 14.8854%
Source Step = 14.9815%
Source Step = 15.0776%
Source Step = 15.1737%
Source Step = 15.2698%
Source Step = 15.3659%
Source Step = 15.462%
Source Step = 15.5581%
Source Step = 15.6542%
vernier = 0.00475682
Source Step = 15.7695%
Source Step = 15.9137%
Source Step = 16.011%
Source Step = 16.047%
Source Step = 16.083%
Source Step = 16.1191%
Source Step = 16.1551%
vernier = 0.00178381
Source Step = 16.1929%
Source Step = 16.247%
Source Step = 16.3011%
Source Step = 16.3551%
Source Step = 16.4092%
Source Step = 16.4632%
vernier = 0.00267571
Source Step = 16.5443%
Source Step = 16.6254%
Source Step = 16.7065%
Source Step = 16.7875%
Source Step = 16.8686%
vernier = 0.00401357
Source Step = 16.9862%
Source Step = 17.1078%
Source Step = 17.2294%
Source Step = 17.3511%
Source Step = 17.4727%
vernier = 0.00602035
Source Step = 17.643%
Source Step = 17.8254%
Source Step = 18.0078%
Source Step = 18.1903%
Source Step = 18.3727%
vernier = 0.00903052
Source Step = 18.619%
Source Step = 18.8926%
Source Step = 19.1663%
Source Step = 19.4399%
Source Step = 19.7136%
vernier = 0.0135458
Source Step = 20.0693%
Source Step = 20.1514%
Source Step = 20.1771%
Source Step = 20.2028%
Source Step = 20.2284%
Source Step = 20.2541%
vernier = 0.00126992
Source Step = 20.2836%
Source Step = 20.322%
Source Step = 20.3605%
Source Step = 20.399%
Source Step = 20.4375%
vernier = 0.00190488
Source Step = 20.4798%
Source Step = 20.5375%
Source Step = 20.5953%
Source Step = 20.653%
Source Step = 20.7107%
vernier = 0.00285731
Source Step = 20.7713%
Source Step = 20.8579%
Source Step = 20.9445%
Source Step = 21.0311%
Source Step = 21.1177%
Source Step = 21.2043%
vernier = 0.00428597
Source Step = 21.3341%
Source Step = 21.464%
Source Step = 21.5939%
Source Step = 21.7238%
Source Step = 21.8536%
vernier = 0.00642896
Source Step = 22.042%
Source Step = 22.2368%
Source Step = 22.4316%
Source Step = 22.6264%
Source Step = 22.8212%
vernier = 0.00964343
Source Step = 23.094%
Source Step = 23.3862%
Source Step = 23.6784%
Source Step = 23.9707%
Source Step = 24.2629%
vernier = 0.0144651
Source Step = 24.6574%
Source Step = 25.0957%
Source Step = 25.5341%
Source Step = 25.9724%
Source Step = 26.4107%
vernier = 0.0216977
Source Step = 26.9806%
Source Step = 27.6381%
Source Step = 28.2956%
Source Step = 28.9531%
Source Step = 29.6106%
vernier = 0.0325466
Source Step = 30.4325%
Source Step = 31.4187%
Source Step = 32.405%
Source Step = 33.3913%
Source Step = 34.3775%
vernier = 0.0488199
Source Step = 35.561%
Source Step = 37.0404%
Source Step = 38.5198%
Source Step = 39.9992%
Source Step = 41.4786%
vernier = 0.0732298
Source Step = 43.1799%
Source Step = 45.399%
Source Step = 47.6181%
Source Step = 49.8372%
Source Step = 52.0562%
vernier = 0.109845
Source Step = 54.4972%
Source Step = 57.8259%
Source Step = 61.1545%
Source Step = 64.4831%
Source Step = 67.8117%
vernier = 0.164767
Source Step = 71.3068%
Source Step = 76.2997%
Source Step = 81.2927%
Source Step = 86.2856%
Source Step = 91.2786%
Source Step = 96.2715%
vernier = 0.247151
Source Step = 100%
Source Step = 99.6085%
Source Step = 99.6348%
Source Step = 99.6641%
Source Step = 99.6934%
Source Step = 99.7226%
Source Step = 99.7519%
Source stepping aborted.
Pseudo Transient failed in finding the operating point at 644.865 µs.
Trouble finding operating point....skipping operating point for Transient analysis.

Date: Mon Dec 14 16:24:04 2020
Total elapsed time: 242.056 seconds.

tnom = 27
temp = 27
method = modified trap
totiter = 351143
traniter = 91370
tranpoints = 23321
accept = 16981
rejected = 6612
matrix size = 426
fillins = 432
solver = Normal
Thread vector: 54.8/39.1[4] 24.1/12.3[4] 4.1/12.2[1] 3.8/7.7[1]  2592/500
Matrix Compiler1: 53.21 KB object code size  27.2/13.1/[7.5]
Matrix Compiler2: 44.77 KB object code size  13.5/12.5/[8.1]

