Circuit: * C:\Users\UTSAV PATHAK\Desktop\JK_FlipFlop.asc

Direct Newton iteration failed to find .op point.  (Use ".option noopiter" to skip.)
Starting Gmin stepping
Gmin = 10
Gmin = 1.07374
Gmin = 0.115292
Gmin = 0.0123794
Gmin = 0.00132923
Gmin = 0.000142725
Gmin = 1.5325e-005
Gmin = 1.6455e-006
Gmin = 1.76685e-007
Gmin = 1.89714e-008
Gmin = 2.03704e-009
Gmin = 2.18725e-010
Gmin = 2.34854e-011
Gmin = 2.52173e-012
vernier = 0.5
Gmin = 7.16483e-013
vernier = 0.666667
vernier = 0.333333
vernier = 0.166667
vernier = 0.0833333
vernier = 0.0416667
Gmin = 6.80377e-013
vernier = 0.0208333
vernier = 0.0104167
vernier = 0.00520833
vernier = 0.00260417
vernier = 0.00130208
Gmin = 6.72486e-013
vernier = 0.00173611
Gmin = 6.69938e-013
vernier = 0.000868055
vernier = 0.000434028
Gmin = 6.69502e-013
Gmin = 0
Gmin stepping succeeded in finding the operating point.

Heightened Def Con from 1e-011 to 3.01e-009

Date: Sat Dec 19 23:19:17 2020
Total elapsed time: 3.330 seconds.

tnom = 27
temp = 27
method = modified trap
totiter = 58442
traniter = 54822
tranpoints = 14203
accept = 10250
rejected = 3954
matrix size = 206
fillins = 172
solver = Normal
Thread vector: 29.7/7.4[4] 20.1/5.9[4] 0.9/1.7[1] 1.2/4.1[1]  2592/500
Matrix Compiler1: 23.31 KB object code size  11.3/4.3/[2.5]
Matrix Compiler2: 20.91 KB object code size  5.9/7.2/[1.4]

