Circuit: * C:\Users\UTSAV PATHAK\Desktop\JKFlipFlop_UtsavPathak.asc

Limiting rise time of source v§ck to 1e-007
Limiting fall time of source v§ck to 1e-007
Direct Newton iteration failed to find .op point.  (Use ".option noopiter" to skip.)
Starting Gmin stepping
Gmin = 10
Gmin = 1.07374
Gmin = 0.115292
Gmin = 0.0123794
Gmin = 0.00132923
Gmin = 0.000142725
Gmin = 1.5325e-005
Gmin = 1.6455e-006
Gmin = 1.76685e-007
Gmin = 1.89714e-008
Gmin = 2.03704e-009
Gmin = 2.18725e-010
Gmin = 2.34854e-011
Gmin = 2.52173e-012
Gmin = 2.70769e-013
Gmin = 0
Gmin stepping succeeded in finding the operating point.


Date: Thu Dec 17 14:43:40 2020
Total elapsed time: 0.795 seconds.

tnom = 27
temp = 27
method = modified trap
totiter = 12820
traniter = 12323
tranpoints = 3325
accept = 2515
rejected = 810
matrix size = 206
fillins = 180
solver = Normal
Thread vector: 24.8/13.5[4] 28.4/18.3[4] 1.6/13.9[1] 1.4/26.2[1]  2592/500
Matrix Compiler1: 23.77 KB object code size  11.4/7.8/[2.3]
Matrix Compiler2: 21.05 KB object code size  5.5/7.7/[2.2]

