Circuit: * C:\Users\UTSAV PATHAK\Desktop\MSJKFF_UtsavPathak.asc

Direct Newton iteration failed to find .op point.  (Use ".option noopiter" to skip.)
Starting Gmin stepping
Gmin = 10
Gmin = 1.07374
Gmin = 0.115292
Gmin = 0.0123794
Gmin = 0.00132923
Gmin = 0.000142725
Gmin = 1.5325e-005
Gmin = 1.6455e-006
Gmin = 1.76685e-007
Gmin = 1.89714e-008
Gmin = 2.03704e-009
Gmin = 2.18725e-010
vernier = 0.5
Gmin = 4.53037e-011
vernier = 0.666667
vernier = 0.888888
Gmin = 1.03239e-011
vernier = 0.444444
vernier = 0.592592
Gmin = 3.78366e-012
vernier = 0.296296
vernier = 0.395061
Gmin = 1.82743e-012
vernier = 0.197531
vernier = 0.0987653
vernier = 0.0493827
vernier = 0.0246913
vernier = 0.0123457
vernier = 0.00617283
vernier = 0.00308642
vernier = 0.00154321
Gmin = 1.91342e-012
vernier = 0.000771604
vernier = 0.000578703
vernier = 0.000434027
Gmin = 0
Gmin stepping failed

Starting source stepping with srcstepmethod=0
Source Step = 3.0303%
vernier = 0.25
Source Step = 2.79356%
Source Step = 2.82611%
Source Step = 2.85571%
Source Step = 2.8853%
Source Step = 2.91489%
Source Step = 2.94448%
vernier = 0.00146484
Source Step = 2.97704%
Source Step = 3.02143%
Source Step = 3.06581%
Source Step = 3.1102%
Source Step = 3.15459%
vernier = 0.00219727
Source Step = 3.2012%
Source Step = 3.26779%
Source Step = 3.33437%
Source Step = 3.40095%
Source Step = 3.46754%
Source Step = 3.53412%
Source Step = 3.6007%
Source Step = 3.66729%
Source Step = 3.73387%
vernier = 0.0032959
Source Step = 3.82709%
Source Step = 3.92696%
Source Step = 4.02684%
Source Step = 4.12672%
Source Step = 4.22659%
Source Step = 4.32647%
Source Step = 4.42634%
Source Step = 4.52622%
vernier = 0.00494385
Source Step = 4.63608%
Source Step = 4.68103%
Source Step = 4.71848%
Source Step = 4.75593%
Source Step = 4.79339%
Source Step = 4.83084%
vernier = 0.00185394
Source Step = 4.8814%
Source Step = 4.93758%
Source Step = 4.99376%
Source Step = 5.04994%
Source Step = 5.10612%
vernier = 0.00278091
Source Step = 5.17916%
Source Step = 5.26343%
Source Step = 5.3477%
Source Step = 5.43197%
Source Step = 5.51624%
vernier = 0.00417137
Source Step = 5.62157%
Source Step = 5.74798%
Source Step = 5.87439%
Source Step = 6.00079%
Source Step = 6.1272%
vernier = 0.00625706
Source Step = 6.27888%
Source Step = 6.46849%
Source Step = 6.6581%
Source Step = 6.84771%
Source Step = 7.03731%
vernier = 0.00938559
Source Step = 7.25536%
Source Step = 7.53977%
Source Step = 7.82419%
Source Step = 8.1086%
Source Step = 8.39301%
vernier = 0.0140784
Source Step = 8.70586%
Source Step = 9.13248%
Source Step = 9.5591%
Source Step = 9.98571%
Source Step = 10.4123%
vernier = 0.0211176
Source Step = 10.8603%
Source Step = 11.5002%
Source Step = 12.1401%
Source Step = 12.7801%
Source Step = 13.42%
Source Step = 14.0599%
vernier = 0.0316764
Source Step = 15.0198%
Source Step = 15.2838%
Source Step = 15.3438%
Source Step = 15.4038%
Source Step = 15.4638%
Source Step = 15.5237%
Source Step = 15.5837%
vernier = 0.00296966
Source Step = 15.6737%
Source Step = 15.7637%
Source Step = 15.8537%
Source Step = 15.9437%
Source Step = 16.0337%
vernier = 0.00445449
Source Step = 16.0798%
Source Step = 16.1136%
Source Step = 16.1473%
Source Step = 16.181%
Source Step = 16.2148%
vernier = 0.00167043
Source Step = 16.257%
Source Step = 16.3076%
Source Step = 16.3582%
Source Step = 16.4088%
Source Step = 16.4594%
vernier = 0.00250565
Source Step = 16.5202%
Source Step = 16.5961%
Source Step = 16.672%
Source Step = 16.748%
Source Step = 16.8239%
vernier = 0.00375847
Source Step = 16.9112%
Source Step = 17.0251%
Source Step = 17.139%
Source Step = 17.2529%
Source Step = 17.3668%
vernier = 0.00563771
Source Step = 17.4921%
Source Step = 17.6629%
Source Step = 17.8338%
Source Step = 18.0046%
Source Step = 18.1754%
vernier = 0.00845657
Source Step = 18.3548%
Source Step = 18.6111%
Source Step = 18.8673%
Source Step = 19.1236%
Source Step = 19.3799%
Source Step = 19.6361%
vernier = 0.0126848
Source Step = 20.0205%
Source Step = 20.4049%
Source Step = 20.7893%
Source Step = 21.1737%
Source Step = 21.5581%
vernier = 0.0190273
Source Step = 22.1154%
Source Step = 22.692%
Source Step = 23.2686%
Source Step = 23.8452%
Source Step = 24.4218%
vernier = 0.0285409
Source Step = 25.229%
Source Step = 26.0939%
Source Step = 26.9587%
Source Step = 27.8236%
Source Step = 28.6885%
vernier = 0.0428114
Source Step = 29.8561%
Source Step = 31.1534%
Source Step = 32.4507%
Source Step = 33.748%
Source Step = 35.0453%
vernier = 0.064217
Source Step = 36.7318%
Source Step = 38.6778%
Source Step = 40.6238%
Source Step = 42.5697%
Source Step = 44.5157%
vernier = 0.0963256
Source Step = 46.9482%
Source Step = 49.8671%
Source Step = 52.7861%
Source Step = 55.705%
Source Step = 58.624%
vernier = 0.144488
Source Step = 62.1268%
Source Step = 66.5052%
Source Step = 70.8836%
Source Step = 75.2621%
Source Step = 79.6405%
vernier = 0.216733
Source Step = 84.6757%
Source Step = 91.2433%
Source Step = 97.811%
Source Step = 100%
Source Step = 99.1642%
Source Step = 99.3361%
Source Step = 99.3617%
Source Step = 99.3874%
Source Step = 99.413%
Source Step = 99.4387%
Source stepping aborted.
Starting source stepping with srcstepmethod=1
Source Step = 3.0303%
Source Step = 9.09979%
Source Step = 9.12938%
Source Step = 9.15897%
Source Step = 9.18857%
Source Step = 9.21816%
Source Step = 9.24775%
vernier = 0.00146484
Source Step = 9.2877%
Source Step = 9.33209%
Source Step = 9.37648%
Source Step = 9.42087%
Source Step = 9.46526%
vernier = 0.00219727
Source Step = 9.52296%
Source Step = 9.58955%
Source Step = 9.65613%
Source Step = 9.72272%
Source Step = 9.7893%
vernier = 0.0032959
Source Step = 9.87253%
Source Step = 9.9724%
Source Step = 10.0723%
Source Step = 10.1722%
Source Step = 10.272%
vernier = 0.00494385
Source Step = 10.3919%
Source Step = 10.5417%
Source Step = 10.6915%
Source Step = 10.8413%
Source Step = 10.9911%
vernier = 0.00741577
Source Step = 11.1634%
Source Step = 11.3881%
Source Step = 11.6129%
Source Step = 11.8376%
Source Step = 12.0623%
vernier = 0.0111237
Source Step = 12.3095%
Source Step = 12.6466%
Source Step = 12.9837%
Source Step = 13.3207%
Source Step = 13.6578%
Source Step = 13.8601%
Source Step = 13.9443%
Source Step = 14.0286%
Source Step = 14.1129%
Source Step = 14.1971%
vernier = 0.00417137
Source Step = 14.2898%
Source Step = 14.4162%
Source Step = 14.5427%
Source Step = 14.6185%
Source Step = 14.6501%
Source Step = 14.6817%
Source Step = 14.7133%
Source Step = 14.7449%
Source Step = 14.7765%
vernier = 0.00156426
Source Step = 14.8239%
Source Step = 14.8713%
Source Step = 14.9187%
Source Step = 14.9661%
Source Step = 15.0135%
vernier = 0.0023464
Source Step = 15.0822%
Source Step = 15.1533%
Source Step = 15.2245%
Source Step = 15.2956%
Source Step = 15.3667%
vernier = 0.00351959
Source Step = 15.4075%
Source Step = 15.4342%
Source Step = 15.4609%
Source Step = 15.4875%
Source Step = 15.5142%
vernier = 0.00131985
Source Step = 15.5462%
Source Step = 15.5862%
Source Step = 15.6262%
Source Step = 15.6662%
Source Step = 15.7062%
vernier = 0.00197977
Source Step = 15.7522%
Source Step = 15.8122%
Source Step = 15.8722%
Source Step = 15.9321%
Source Step = 15.9921%
vernier = 0.00296966
Source Step = 16.0581%
Source Step = 16.1481%
Source Step = 16.2381%
Source Step = 16.3281%
Source Step = 16.4181%
Source Step = 16.5081%
Source Step = 16.5981%
vernier = 0.00445449
Source Step = 16.7106%
Source Step = 16.8455%
Source Step = 16.9805%
Source stepping aborted.
Pseudo Transient failed in finding the operating point at 100.049 ms.
Trouble finding operating point....skipping operating point for Transient analysis.
to 1.125e-010

Date: Sat Jan 02 20:45:52 2021
Total elapsed time: 15.879 seconds.

tnom = 27
temp = 27
method = modified trap
totiter = 144599
traniter = 79694
tranpoints = 20247
accept = 14655
rejected = 6577
matrix size = 306
fillins = 302
solver = Normal
Thread vector: 47.7/10.8[4] 15.0/8.7[4] 3.5/4.3[1] 2.6/10.6[1]  2592/500
Matrix Compiler1: 38.08 KB object code size  13.7/8.5/[3.4]
Matrix Compiler2: 31.96 KB object code size  12.4/19.3/[4.8]

